*Heading
3D torsional actuator
**
** This input file is for the simulation of a 3D torsional actuator.  
**    It is to be used use UEL subroutine, uel_dielectric_3D.for.
**
** UNITS:  Length - meters, Time - sec, Angle - radians,
**	   Force - Newtons, Stress - Newton/meter^2 = Pa, 
**	   Mass - kilograms, Density - kg/meter^3, Energy - Joules
**
** The electrical units are chosen so that the permittivity is unity.
**
** To interpret the simulated electric potential in volts for a real material:
**
**       real potential = simulated potential/sqrt(real permittivity)
**
** To interpret the simulated charge in coulombs for a real material:
** 
**       real charge = simulated charge*sqrt(real permittivity)
**
** REDUCED INTEGRATION: In order to use reduced integration three 
**     changes should be made:
**
**     1. The element type of the dummy mesh should be changed
**        from C3D8 to C3D8R.
**     2. In the Material Definition section of this input file,
**        the '*Hourglass Stiffness' command and subsequent line
**        should be uncommented.
**     3. In the UEL subroutine, nInt should be set to 1.
**
** David L. Henann, September 2012
**
**
************************************************************************
**			PARAMETERS
************************************************************************
**
*Parameter
**
** Shear modulus (Pa)
G = 1.0e6
**
Ghour = 0.005*G
**
** Bulk modulus (Pa)
K = 1.0e9
**
** Gent parameter
Imax = 7.0
**
** Permittivity (arbitrary units)
permit = 1.0
**
** Final potential
phi = 0.5
**
** Final time (s)
tf = 1.0
**
**
************************************************************************
**			MODEL DEFINITION
************************************************************************
**
** Nodes
**
*Node, nset=nall
      1, 0.00499999989, 0.000500000024, 0.0500000007
      2, 0.00499999989,           0., 0.0500000007
      3, 0.00499999989, -0.000500000024, 0.0500000007
      4, 0.00501946127, 0.000234542385,  0.049578432
      5, 0.00499298563, -0.000264756178,  0.049578432
      6, 0.00496650999, -0.000764054712,  0.049578432
      7, 0.00502483686,  -3.18555722e-05, 0.0491564125
      8, 0.00497193215, -0.00052904879, 0.0491564125
      9, 0.00491902698, -0.00102624192, 0.0491564125
     10, 0.00501607452, -0.000298320345, 0.0487341471
     11, 0.00493687391, -0.000792007719, 0.0487341471
     12, 0.00485767331, -0.00128569512, 0.0487341471
     13, 0.00499318587, -0.000564000162,  0.048311796
     14, 0.00488790683, -0.0010527909,  0.048311796
     15, 0.00478262734, -0.00154158147,  0.048311796
     16, 0.0049562389, -0.000828068762, 0.0478894822
     17, 0.00482517993, -0.00131058681, 0.0478894822
     18, 0.00469412142, -0.00179310481, 0.0478894822
     19, 0.00490535377, -0.00108972751, 0.0474672914
     20, 0.00474889204, -0.00156461669, 0.0474672914
** ... 7477 like lines cut
**
** Elements
**
*User Element,Nodes=8,Type=U1,Iproperties=0,Properties=4,Coordinates=3,Variables=1,Unsymm
1,2,3,11
*Element, type=U1, elset=elall
   1,  358,  359,  362,  361,    1,    2,    5,    4
   2,  359,  360,  363,  362,    2,    3,    6,    5
   3,  361,  362,  365,  364,    4,    5,    8,    7
   4,  362,  363,  366,  365,    5,    6,    9,    8
   5,  364,  365,  368,  367,    7,    8,   11,   10
   6,  365,  366,  369,  368,    8,    9,   12,   11
   7,  367,  368,  371,  370,   10,   11,   14,   13
   8,  368,  369,  372,  371,   11,   12,   15,   14
   9,  370,  371,  374,  373,   13,   14,   17,   16
  10,  371,  372,  375,  374,   14,   15,   18,   17
  11,  373,  374,  377,  376,   16,   17,   20,   19
  12,  374,  375,  378,  377,   17,   18,   21,   20
  13,  376,  377,  380,  379,   19,   20,   23,   22
  14,  377,  378,  381,  380,   20,   21,   24,   23
  15,  379,  380,  383,  382,   22,   23,   26,   25
  16,  380,  381,  384,  383,   23,   24,   27,   26
  17,  382,  383,  386,  385,   25,   26,   29,   28
  18,  383,  384,  387,  386,   26,   27,   30,   29
  19,  385,  386,  389,  388,   28,   29,   32,   31
  20,  386,  387,  390,  389,   29,   30,   33,   32
** ... 4700 like lines cut
**
** Make the dummy mesh, shares nodes with the real mesh,
**  allows visualization of the results, access to 
**  hourglass controls, and access to mechanical, 
**  traction-type boundary conditions
**
*Element, type=C3D8, elset=eldummy
10001,358,359,362,361,1,2,5,4
10002,359,360,363,362,2,3,6,5
10003,361,362,365,364,4,5,8,7
10004,362,363,366,365,5,6,9,8
10005,364,365,368,367,7,8,11,10
10006,365,366,369,368,8,9,12,11
10007,367,368,371,370,10,11,14,13
10008,368,369,372,371,11,12,15,14
10009,370,371,374,373,13,14,17,16
10010,371,372,375,374,14,15,18,17
10011,373,374,377,376,16,17,20,19
10012,374,375,378,377,17,18,21,20
10013,376,377,380,379,19,20,23,22
10014,377,378,381,380,20,21,24,23
10015,379,380,383,382,22,23,26,25
10016,380,381,384,383,23,24,27,26
10017,382,383,386,385,25,26,29,28
10018,383,384,387,386,26,27,30,29
10019,385,386,389,388,28,29,32,31
10020,386,387,390,389,29,30,33,32
** ... 4700 like lines cut
**
** Sets
**
** The voltage is applied to Set-1
*Nset, nset=Set-1, generate
    1,  7495,     3
**
** Set-2 is electrical ground
*Nset, nset=Set-2, generate
    3,  7497,     3
**
** The set Base is the held end of the helicoid
*Nset, nset=Base
  355,  356,  357,  712,  713,  714, 1069, 1070, 1071, 1426, 1427, 1428, 1783, 1784, 1785, 2140
 2141, 2142, 2497, 2498, 2499, 2854, 2855, 2856, 3211, 3212, 3213, 3568, 3569, 3570, 3925, 3926
 3927, 4282, 4283, 4284, 4639, 4640, 4641, 4996, 4997, 4998, 5353, 5354, 5355, 5710, 5711, 5712
 6067, 6068, 6069, 6424, 6425, 6426, 6781, 6782, 6783, 7138, 7139, 7140, 7495, 7496, 7497
*Nset, nset=ypin, generate
  356,  7496,   357
*Nset, nset=xpin
 3926,
**
** The set Front is the end of the helicoid that is free to rotate
*Nset, nset=Front
    1,    3,  358,  360,  715,  717, 1072, 1074, 1429, 1431, 1786
 1788, 2143, 2145, 2500, 2502, 2857, 2859, 3214, 3216, 3571,
 3573, 3928, 3930, 4285, 4287, 4642, 4644, 4999, 5001, 5356, 5358
 5713, 5715, 6070, 6072, 6427, 6429, 6784, 6786, 7141, 7143
*Nset, nset=ypin_Front
    2,  359,  716, 1073, 1430, 1787, 2144, 2501, 2858, 3215, 3929, 4286, 4643, 5000, 5357
 5714, 6071, 6428, 6785, 7142
*Nset, nset=xpin_Front
 3572,
**
** Reference nodes for imposing constraints
**
*Node, nset=nRef
 9000, 0.0, 0.0, 50.0e-3
*Node, nset=nRef1
 9001, -5.0e-3, 0.0, 50.0e-3
*Node, nset=nRef2
 9002,  5.0e-3, 0.0, 50.0e-3
*Nset, nset=nRefs
 nRef1,nRef2
**
** Make a dummy element which is not connected to anything with C3D8T
**  just so that we can have the coupled thermal-displacement
**
*Node
999992,  0.0, 0.0, 0.0
999993,  .00001, 0.0, 0.0
999994,  .00001, .00001, 0.0
999995,  0.0, .00001, 0.0
999996,  0.0, 0.0, 0.00001
999997,  .00001, 0.0, 0.00001
999998,  .00001, .00001, 0.00001
999999,  0.0, .00001, 0.00001
*Nset, nset=tempElement
999992,999993,999994,999995,999996,999997,999998,999999
*Element, Type=C3D8RT
999998,999992,999993,999994,999995,999996,999997,999998,999999
*Elset,elset=tempElement
999998
************************************************************************
**			MATERIAL DEFINITION
************************************************************************
**
** Material properties for the real material
**
*uel property,elset=elall
*******************************************************************
**G	Kbulk	Imax	permit
<G>,	<K>,	<Imax>,	<permit>
**
*******************************************************************
**
** Dummy mesh material properties
**
*Solid section, elset=ElDummy, material=Material-1
***Hourglass stiffness
**<Ghour>
*Solid section, elset=tempElement, material=Material-2
**
*Material, name=Material-1
** The dummy mesh stiffness is very small
*Elastic
1.e-20
*Density
1.0
**
*Material, name=Material-2
*Elastic
1.e-20
*Conductivity
1.0
*Density
1.0
*Specific heat
1.0
**
************************************************************************
**			INITIAL CONDITIONS
************************************************************************
*Initial conditions, type=temperature
Nall, 0.0
tempElement, 0.0
************************************************************************
**			   AMPLITUDE
************************************************************************
*Amplitude, name=Amp-1
0.0,0.0,<tf>,1.0
************************************************************************
**			   CONSTRAINTS
************************************************************************
*MPC
SLIDER,ypin_Front,nref1,nref2
*Rigid body, ref node=nRef, pin nset=nrefs
*Equation
2
Front,3,-1.0,nRef,3,1.0
2
xpin_Front,1,-1.0,nRef,1,1.0
2
xpin_Front,2,-1.0,nRef,2,1.0
2
xpin_Front,3,-1.0,nRef,3,1.0
************************************************************************
**			STEP DEFINITION
************************************************************************
*Step, Name=Actuate, nlgeom=yes, unsymm=yes, inc=50000
*Coupled temperature-displacement, deltmx=100.0
0.01,<tf>,1.e-6,0.01
*controls, parameters=line search
10,1.0,0.0001,0.25,0.10
*controls, parameters=time incrementation
,,,,,,,10,,,,,,
**
*Boundary
xpin,1,1
ypin,2,2
Base,3,3
nRef,1,2
nRef,4,5
Set-2,11,11,0.0
*Boundary, amplitude=Amp-1
Set-1,11,11,<phi>
*Boundary
tempElement,encastre
tempElement,11,11,0.0
**
*Output, field, time interval=0.02
*node output, nset=nall
u,nt
*Element output, elset=ElDummy
le
**
*Output, history, time interval=0.02
*node output, nset=nRef
u3,ur3,rf3,rm3
**
*End Step
************************************************************************
